read_restart	restart.nvthightemp.dat
  orthogonal box = (0 0 0) to (119.642 119.642 119.642)
  1025 atoms
  1008 bonds

# Dreiding potential information
neighbor	0.4 bin
neigh_modify	every 10 one 10000
#bond_style      class2
#bond_coeff	1 4.7 5.76525  0.0 2.882625 #kcal/mol
#bond_coeff	1 4.7 0.25ev 0.0 0.125ev

#special_bonds fene angle no dihedral no
special_bonds lj 0.0 1.0 1.0

#####equi1_pair.py data
include pairfile_no_soft
bond_style      class2
bond_coeff	1 4.700000 5.765250 0.000000 2.882625 #kcal/mol

pair_style lj/expand 25
pair_modify shift yes
pair_coeff * * 1.129989 4.700000 0.000000 9.870000

pair_coeff 1 1 1.129989 4.700000 0.000000 5.275572
pair_coeff 2 2 1.129989 4.700000 0.000000 5.275572
pair_coeff 3 3 1.129989 4.700000 0.000000 5.275572
pair_coeff 4 4 1.129989 4.700000 0.000000 5.275572
pair_coeff 5 5 1.129989 4.700000 0.000000 5.275572
pair_coeff 6 6 1.129989 4.700000 0.000000 5.275572
pair_coeff 7 7 1.129989 4.700000 0.000000 5.275572
pair_coeff 8 8 1.129989 4.700000 0.000000 5.275572
pair_coeff 9 9 1.129989 4.700000 0.000000 5.275572
pair_coeff 10 10 1.129989 4.700000 0.000000 5.275572
pair_coeff 11 11 1.129989 4.700000 0.000000 5.275572
pair_coeff 12 12 1.129989 4.700000 0.000000 5.275572
pair_coeff 13 13 1.129989 4.700000 0.000000 5.275572
pair_coeff 14 14 1.129989 4.700000 0.000000 5.275572
pair_coeff 15 15 1.129989 4.700000 0.000000 5.275572
pair_coeff 16 16 1.129989 4.700000 0.000000 5.275572

pair_coeff * 17 4.519956 4.700000 37.600000 9.870000
pair_coeff 17 17 0.282497 4.700000 37.600000 5.275572
####equi1_pair.py complete

#####################################################
# Equilibration Stage 2 (NVT deform at 1000 K)
group np type 17
1 atoms in group np
fix         1st all nvt temp 1000 1000 20
fix         2nd np move linear 0 0 0 units box
fix         3rd all deform 10 x final 0.0 100 y final 0.0 100 z final 0.0 100 units box
fix   		4th all momentum 1 linear 1 1 1
thermo_style	custom step temp press epair ebond vol pxx pyy pzz lx ly lz
thermo          1000
timestep	2
dump		1 all dcd 1000 deformation.dcd
reset_timestep  0
run		1000000
Step Temp Press E_pair E_bond Volume Pxx Pyy Pzz Lx Ly Lz
0    841.36539    -66.05507    2509.9544    8766.9121      1712602   -49.975835   -134.86925   -13.320129     119.6425     119.6425     119.6425
Averages over the last 501 of 1001 rows, steps 500000 to 1000000:
Temp Press E_pair E_bond Volume Pxx Pyy Pzz Lx Ly Lz
719.507 -9.14933 2018.49 8715.23 1.15721e+06 -10.151 -1.16867 -16.1283 104.911 104.911 104.911
Loop time of 6026.24 on 1 procs for 1000000 steps with 1025 atoms

Pair  time (%) = 214.443 (3.55848)
Bond  time (%) = 36.9932 (0.613868)
Neigh time (%) = 5619.68 (93.2535)
Comm  time (%) = 74.8456 (1.24199)
Outpt time (%) = 9.69264 (0.160841)
Other time (%) = 70.5853 (1.1713)

unfix 1st
unfix 2nd
unfix 3rd
unfix 4th
write_restart 	restart.deformation.dat

print "[>> All done! <<]"
[>> All done! <<]
